
OS:Version,
  {1f438014-e764-4d13-a00a-3cce370a34c1}, !- Handle
  3.10.0;                                 !- Version Identifier

OS:WeatherFile,
  {6d20570d-7ac0-4bc6-bbe2-218271164d9a}, !- Handle
  Montreal-McTavish,                      !- City
  QC,                                     !- State Province Region
  CAN,                                    !- Country
  CWEC2016,                               !- Data Source
  716120,                                 !- WMO Number
  45.5,                                   !- Latitude {deg}
  -73.58,                                 !- Longitude {deg}
  -5,                                     !- Time Zone {hr}
  72.8,                                   !- Elevation {m}
  /workspaces/LadybugTools/CAN_QC_Montreal-McTavish.716120_CWEC2016/CAN_QC_Montreal-McTavish.716120_CWEC2016.epw, !- Url
  F56E6BFC,                               !- Checksum
  ,                                       !- Start Date Actual Year
  Sunday;                                 !- Start Day of Week

OS:ClimateZones,
  {acfd5e69-b0b3-434b-ac58-874ec02f2d02}, !- Handle
  ASHRAE,                                 !- Climate Zone Institution Name 1
  ANSI/ASHRAE Standard 169,               !- Climate Zone Document Name 1
  2006,                                   !- Climate Zone Document Year 1
  6A;                                     !- Climate Zone Value 1

OS:Output:Variable,
  {f1a6f815-0c2c-4768-b8df-90c79d439466}, !- Handle
  Output Variable 1,                      !- Name
  ,                                       !- Key Value
  Baseboard Electricity Energy,           !- Variable Name
  Hourly;                                 !- Reporting Frequency

OS:Output:Variable,
  {42f68b0c-431b-4192-981f-ab1f3d79413e}, !- Handle
  Output Variable 2,                      !- Name
  ,                                       !- Key Value
  Boiler Electricity Energy,              !- Variable Name
  Hourly;                                 !- Reporting Frequency

OS:Output:Variable,
  {035e5047-1960-4901-9152-c64c0db28660}, !- Handle
  Output Variable 3,                      !- Name
  ,                                       !- Key Value
  Boiler NaturalGas Energy,               !- Variable Name
  Hourly;                                 !- Reporting Frequency

OS:Output:Variable,
  {32dda77f-eef5-4a6d-b622-33aecb293b57}, !- Handle
  Output Variable 4,                      !- Name
  ,                                       !- Key Value
  Chiller Electricity Energy,             !- Variable Name
  Hourly;                                 !- Reporting Frequency

OS:Output:Variable,
  {4fef5f7a-89ce-4e5a-98c7-d32622c53fb2}, !- Handle
  Output Variable 5,                      !- Name
  ,                                       !- Key Value
  Chiller Heater System Cooling Electricity Energy, !- Variable Name
  Hourly;                                 !- Reporting Frequency

OS:Output:Variable,
  {0f056f95-6655-4c08-843f-fdee147ec35b}, !- Handle
  Output Variable 6,                      !- Name
  ,                                       !- Key Value
  Chiller Heater System Heating Electricity Energy, !- Variable Name
  Hourly;                                 !- Reporting Frequency

OS:Output:Variable,
  {a7cbb8b3-52f4-4930-8df7-4e68579f86a7}, !- Handle
  Output Variable 7,                      !- Name
  ,                                       !- Key Value
  Cooling Coil Electricity Energy,        !- Variable Name
  Hourly;                                 !- Reporting Frequency

OS:Output:Variable,
  {ed352331-21f3-4add-9a99-67a9f7c0bfae}, !- Handle
  Output Variable 8,                      !- Name
  ,                                       !- Key Value
  Cooling Coil Water Heating Electricity Energy, !- Variable Name
  Hourly;                                 !- Reporting Frequency

OS:Output:Variable,
  {044f4be6-ee22-443d-80db-b0d0019782ca}, !- Handle
  Output Variable 9,                      !- Name
  ,                                       !- Key Value
  Cooling Tower Fan Electricity Energy,   !- Variable Name
  Hourly;                                 !- Reporting Frequency

OS:Output:Variable,
  {257f1b15-be69-4ed0-bd59-4e753f2aca7f}, !- Handle
  Output Variable 10,                     !- Name
  ,                                       !- Key Value
  District Cooling Water Energy,          !- Variable Name
  Hourly;                                 !- Reporting Frequency

OS:Output:Variable,
  {dcea2d1d-5cd7-42c1-a04e-41723fbf5127}, !- Handle
  Output Variable 11,                     !- Name
  ,                                       !- Key Value
  District Heating Water Energy,          !- Variable Name
  Hourly;                                 !- Reporting Frequency

OS:Output:Variable,
  {2cb92996-8fc2-488d-9f55-e1ed7fb7a84d}, !- Handle
  Output Variable 12,                     !- Name
  ,                                       !- Key Value
  Evaporative Cooler Electricity Energy,  !- Variable Name
  Hourly;                                 !- Reporting Frequency

OS:Output:Variable,
  {69a488ce-ffb5-4c10-a2f4-17d33e414de4}, !- Handle
  Output Variable 13,                     !- Name
  ,                                       !- Key Value
  Facility Net Purchased Electricity Energy, !- Variable Name
  Hourly;                                 !- Reporting Frequency

OS:Output:Variable,
  {78eb0fd7-f831-4d3f-82ed-1f10e481873d}, !- Handle
  Output Variable 14,                     !- Name
  ,                                       !- Key Value
  Facility Total Produced Electricity Energy, !- Variable Name
  Hourly;                                 !- Reporting Frequency

OS:Output:Variable,
  {e3168812-59dc-48fe-8e59-fefc87a8f6b9}, !- Handle
  Output Variable 15,                     !- Name
  ,                                       !- Key Value
  Fan Electricity Energy,                 !- Variable Name
  Hourly;                                 !- Reporting Frequency

OS:Output:Variable,
  {e8648f27-f150-471f-9954-635438e7b6aa}, !- Handle
  Output Variable 16,                     !- Name
  ,                                       !- Key Value
  Generator Produced DC Electricity Energy, !- Variable Name
  Hourly;                                 !- Reporting Frequency

OS:Output:Variable,
  {1bd206c6-a800-4078-b23e-e73b4b113440}, !- Handle
  Output Variable 17,                     !- Name
  ,                                       !- Key Value
  Heating Coil Electricity Energy,        !- Variable Name
  Hourly;                                 !- Reporting Frequency

OS:Output:Variable,
  {2fe98a77-a935-4884-90d5-d19643f9f5be}, !- Handle
  Output Variable 18,                     !- Name
  ,                                       !- Key Value
  Heating Coil NaturalGas Energy,         !- Variable Name
  Hourly;                                 !- Reporting Frequency

OS:Output:Variable,
  {0dfe6d0e-8283-4e7b-be8e-9cf1159cd211}, !- Handle
  Output Variable 19,                     !- Name
  ,                                       !- Key Value
  Heating Coil Total Heating Energy,      !- Variable Name
  Hourly;                                 !- Reporting Frequency

OS:Output:Variable,
  {5c00d4fc-b53a-46b1-a3be-9e54a6536578}, !- Handle
  Output Variable 20,                     !- Name
  ,                                       !- Key Value
  Hot_Water_Loop_Central_Air_Source_Heat_Pump Electricity Consumption, !- Variable Name
  Hourly;                                 !- Reporting Frequency

OS:Output:Variable,
  {467d6433-71f4-43ba-ae98-9ac2999499e6}, !- Handle
  Output Variable 21,                     !- Name
  ,                                       !- Key Value
  Humidifier Electricity Energy,          !- Variable Name
  Hourly;                                 !- Reporting Frequency

OS:Output:Variable,
  {da891b45-16aa-4777-ae49-5071e1b5cf4f}, !- Handle
  Output Variable 22,                     !- Name
  ,                                       !- Key Value
  Pump Electricity Energy,                !- Variable Name
  Hourly;                                 !- Reporting Frequency

OS:Output:Variable,
  {e25a855d-0d45-450e-a018-4404378ffe35}, !- Handle
  Output Variable 23,                     !- Name
  ,                                       !- Key Value
  VRF Heat Pump Cooling Electricity Energy, !- Variable Name
  Hourly;                                 !- Reporting Frequency

OS:Output:Variable,
  {9a025009-8cb8-46b8-9627-d52b2299412f}, !- Handle
  Output Variable 24,                     !- Name
  ,                                       !- Key Value
  VRF Heat Pump Crankcase Heater Electricity Energy, !- Variable Name
  Hourly;                                 !- Reporting Frequency

OS:Output:Variable,
  {3c664c5c-2fba-4939-bb03-18a79e01c3a5}, !- Handle
  Output Variable 25,                     !- Name
  ,                                       !- Key Value
  VRF Heat Pump Defrost Electricity Energy, !- Variable Name
  Hourly;                                 !- Reporting Frequency

OS:Output:Variable,
  {611d0d13-20f9-4f87-aafa-eb4b8b7e68d0}, !- Handle
  Output Variable 26,                     !- Name
  ,                                       !- Key Value
  VRF Heat Pump Heating Electricity Energy, !- Variable Name
  Hourly;                                 !- Reporting Frequency

OS:Output:Variable,
  {a3e02ef0-e87b-4398-a2f5-6efadf13710c}, !- Handle
  Output Variable 27,                     !- Name
  ,                                       !- Key Value
  Water Heater Electricity Energy,        !- Variable Name
  Hourly;                                 !- Reporting Frequency

OS:Output:Variable,
  {6865bba4-33fd-40c4-8566-490e6a4c5d2a}, !- Handle
  Output Variable 28,                     !- Name
  ,                                       !- Key Value
  Water Heater NaturalGas Energy,         !- Variable Name
  Hourly;                                 !- Reporting Frequency

OS:Output:Variable,
  {9abf8418-ab79-4e0f-b6d0-15bbc0b0a144}, !- Handle
  Output Variable 29,                     !- Name
  ,                                       !- Key Value
  Water Use Equipment Heating Energy,     !- Variable Name
  Hourly;                                 !- Reporting Frequency

OS:Output:Variable,
  {4ade0746-c47f-4cc7-8bbc-6b6dfcddbf99}, !- Handle
  Output Variable 30,                     !- Name
  ,                                       !- Key Value
  Zone Electric Equipment Electricity Energy, !- Variable Name
  Hourly;                                 !- Reporting Frequency

OS:Output:Variable,
  {ca37f4df-2a00-48ec-ad5d-69951f5defee}, !- Handle
  Output Variable 31,                     !- Name
  ,                                       !- Key Value
  Zone Gas Equipment NaturalGas Energy,   !- Variable Name
  Hourly;                                 !- Reporting Frequency

OS:Output:Variable,
  {a2cb3baf-54a8-415e-afb5-7edc7967df8b}, !- Handle
  Output Variable 32,                     !- Name
  ,                                       !- Key Value
  Zone Ideal Loads Supply Air Total Cooling Energy, !- Variable Name
  Hourly;                                 !- Reporting Frequency

OS:Output:Variable,
  {29aac438-2da7-4024-9b55-1c24440584fb}, !- Handle
  Output Variable 33,                     !- Name
  ,                                       !- Key Value
  Zone Ideal Loads Supply Air Total Heating Energy, !- Variable Name
  Hourly;                                 !- Reporting Frequency

OS:Output:Variable,
  {4c7d2876-6e9c-4825-9b1e-3817a42e5498}, !- Handle
  Output Variable 34,                     !- Name
  ,                                       !- Key Value
  Zone Lights Electricity Energy,         !- Variable Name
  Hourly;                                 !- Reporting Frequency

OS:Output:Variable,
  {80d872e6-9be4-4e3b-8f04-4e8526892a9d}, !- Handle
  Output Variable 35,                     !- Name
  ,                                       !- Key Value
  Zone Other Equipment Lost Heat Energy,  !- Variable Name
  Hourly;                                 !- Reporting Frequency

OS:Output:Variable,
  {82f3f502-236a-4165-885d-495d63a1caf0}, !- Handle
  Output Variable 36,                     !- Name
  ,                                       !- Key Value
  Zone Other Equipment Total Heating Energy, !- Variable Name
  Hourly;                                 !- Reporting Frequency

OS:Output:Variable,
  {5001f4af-dbf5-4acb-98df-9072906c513f}, !- Handle
  Output Variable 37,                     !- Name
  ,                                       !- Key Value
  Zone VRF Air Terminal Cooling Electricity Energy, !- Variable Name
  Hourly;                                 !- Reporting Frequency

OS:Output:Variable,
  {15729818-32a7-4f32-99ce-afcdd5fdef8c}, !- Handle
  Output Variable 38,                     !- Name
  ,                                       !- Key Value
  Zone VRF Air Terminal Heating Electricity Energy, !- Variable Name
  Hourly;                                 !- Reporting Frequency

OS:Output:Variable,
  {34d88bb6-6574-495d-8b67-b7b3bc60f3e4}, !- Handle
  Output Variable 39,                     !- Name
  ,                                       !- Key Value
  Zone Ventilation Fan Electricity Energy, !- Variable Name
  Hourly;                                 !- Reporting Frequency

OS:Output:Table:SummaryReports,
  {4f454bed-726d-47ef-a981-526f64cb05b8}, !- Handle
  AllSummary;                             !- Report Name 1

OS:OutputControl:ReportingTolerances,
  {6c23e795-eddf-4cfe-b9b9-d2cd9467747a}, !- Handle
  1.11,                                   !- Tolerance for Time Heating Setpoint Not Met {deltaC}
  1.11;                                   !- Tolerance for Time Cooling Setpoint Not Met {deltaC}

OS:YearDescription,
  {708d485d-d1fa-48e1-88aa-09d36d9707ff}, !- Handle
  ,                                       !- Calendar Year
  Sunday;                                 !- Day of Week for Start Day

OS:RunPeriod,
  {4fb30927-96d9-4631-b7c0-cb73aef0fc37}, !- Handle
  Run Period 1,                           !- Name
  1,                                      !- Begin Month
  1,                                      !- Begin Day of Month
  12,                                     !- End Month
  31,                                     !- End Day of Month
  ,                                       !- Use Weather File Holidays and Special Days
  ,                                       !- Use Weather File Daylight Saving Period
  ,                                       !- Apply Weekend Holiday Rule
  ,                                       !- Use Weather File Rain Indicators
  ,                                       !- Use Weather File Snow Indicators
  ;                                       !- Number of Times Runperiod to be Repeated

OS:Sizing:Parameters,
  {c87bdda8-2b1f-450d-86f7-8e042fbe2461}, !- Handle
  1.25,                                   !- Heating Sizing Factor
  1.15;                                   !- Cooling Sizing Factor

OS:SizingPeriod:DesignDay,
  {d9049503-2dbd-46e4-85da-d13cfde81a6d}, !- Handle
  Montreal-McTavish Ann Htg 99.6% Condns DB, !- Name
  -21.3,                                  !- Maximum Dry-Bulb Temperature {C}
  0,                                      !- Daily Dry-Bulb Temperature Range {deltaC}
  100453,                                 !- Barometric Pressure {Pa}
  2,                                      !- Wind Speed {m/s}
  250,                                    !- Wind Direction {deg}
  0,                                      !- Sky Clearness
  No,                                     !- Rain Indicator
  No,                                     !- Snow Indicator
  21,                                     !- Day of Month
  1,                                      !- Month
  WinterDesignDay,                        !- Day Type
  No,                                     !- Daylight Saving Time Indicator
  Wetbulb,                                !- Humidity Condition Type
  ,                                       !- Humidity Condition Day Schedule Name
  -21.3,                                  !- Wetbulb or DewPoint at Maximum Dry-Bulb {C}
  ,                                       !- Humidity Ratio at Maximum Dry-Bulb {kgWater/kgDryAir}
  ,                                       !- Enthalpy at Maximum Dry-Bulb {J/kg}
  ,                                       !- Dry-Bulb Temperature Range Modifier Type
  ,                                       !- Dry-Bulb Temperature Range Modifier Day Schedule Name
  ASHRAEClearSky;                         !- Solar Model Indicator

OS:SizingPeriod:DesignDay,
  {29f39be5-99aa-44c5-89b5-29bc9aa95fce}, !- Handle
  Montreal-McTavish Ann Hum_n 99.6% Condns DP=>MCDB, !- Name
  -20.7,                                  !- Maximum Dry-Bulb Temperature {C}
  0,                                      !- Daily Dry-Bulb Temperature Range {deltaC}
  100453,                                 !- Barometric Pressure {Pa}
  2,                                      !- Wind Speed {m/s}
  250,                                    !- Wind Direction {deg}
  0,                                      !- Sky Clearness
  No,                                     !- Rain Indicator
  No,                                     !- Snow Indicator
  21,                                     !- Day of Month
  1,                                      !- Month
  WinterDesignDay,                        !- Day Type
  No,                                     !- Daylight Saving Time Indicator
  Dewpoint,                               !- Humidity Condition Type
  ,                                       !- Humidity Condition Day Schedule Name
  -28,                                    !- Wetbulb or DewPoint at Maximum Dry-Bulb {C}
  ,                                       !- Humidity Ratio at Maximum Dry-Bulb {kgWater/kgDryAir}
  ,                                       !- Enthalpy at Maximum Dry-Bulb {J/kg}
  ,                                       !- Dry-Bulb Temperature Range Modifier Type
  ,                                       !- Dry-Bulb Temperature Range Modifier Day Schedule Name
  ASHRAEClearSky;                         !- Solar Model Indicator

OS:SizingPeriod:DesignDay,
  {52c826c3-937b-4ebc-af67-b7edffc96a3c}, !- Handle
  Montreal-McTavish Ann Htg Wind 99.6% Condns WS=>MCDB, !- Name
  -10.4,                                  !- Maximum Dry-Bulb Temperature {C}
  0,                                      !- Daily Dry-Bulb Temperature Range {deltaC}
  100453,                                 !- Barometric Pressure {Pa}
  5.2,                                    !- Wind Speed {m/s}
  250,                                    !- Wind Direction {deg}
  0,                                      !- Sky Clearness
  No,                                     !- Rain Indicator
  No,                                     !- Snow Indicator
  21,                                     !- Day of Month
  1,                                      !- Month
  WinterDesignDay,                        !- Day Type
  No,                                     !- Daylight Saving Time Indicator
  Wetbulb,                                !- Humidity Condition Type
  ,                                       !- Humidity Condition Day Schedule Name
  -10.4,                                  !- Wetbulb or DewPoint at Maximum Dry-Bulb {C}
  ,                                       !- Humidity Ratio at Maximum Dry-Bulb {kgWater/kgDryAir}
  ,                                       !- Enthalpy at Maximum Dry-Bulb {J/kg}
  ,                                       !- Dry-Bulb Temperature Range Modifier Type
  ,                                       !- Dry-Bulb Temperature Range Modifier Day Schedule Name
  ASHRAEClearSky;                         !- Solar Model Indicator

OS:SizingPeriod:DesignDay,
  {fca81b60-203b-4aa4-b05e-852137d95027}, !- Handle
  Montreal-McTavish Ann Clg .4% Condns DB=>MWB, !- Name
  30.5,                                   !- Maximum Dry-Bulb Temperature {C}
  9.3,                                    !- Daily Dry-Bulb Temperature Range {deltaC}
  100453,                                 !- Barometric Pressure {Pa}
  1.9,                                    !- Wind Speed {m/s}
  200,                                    !- Wind Direction {deg}
  ,                                       !- Sky Clearness
  No,                                     !- Rain Indicator
  No,                                     !- Snow Indicator
  21,                                     !- Day of Month
  7,                                      !- Month
  SummerDesignDay,                        !- Day Type
  No,                                     !- Daylight Saving Time Indicator
  Wetbulb,                                !- Humidity Condition Type
  ,                                       !- Humidity Condition Day Schedule Name
  21.8,                                   !- Wetbulb or DewPoint at Maximum Dry-Bulb {C}
  ,                                       !- Humidity Ratio at Maximum Dry-Bulb {kgWater/kgDryAir}
  ,                                       !- Enthalpy at Maximum Dry-Bulb {J/kg}
  ,                                       !- Dry-Bulb Temperature Range Modifier Type
  ,                                       !- Dry-Bulb Temperature Range Modifier Day Schedule Name
  ASHRAETau2017,                          !- Solar Model Indicator
  ,                                       !- Beam Solar Day Schedule Name
  ,                                       !- Diffuse Solar Day Schedule Name
  0.418,                                  !- ASHRAE Clear Sky Optical Depth for Beam Irradiance {dimensionless}
  2.331;                                  !- ASHRAE Clear Sky Optical Depth for Diffuse Irradiance {dimensionless}

OS:SizingPeriod:DesignDay,
  {dd950c46-147b-418a-b0ed-03b2d9574db2}, !- Handle
  Montreal-McTavish Ann Clg .4% Condns WB=>MDB, !- Name
  28.4,                                   !- Maximum Dry-Bulb Temperature {C}
  8.3,                                    !- Daily Dry-Bulb Temperature Range {deltaC}
  100453,                                 !- Barometric Pressure {Pa}
  1.9,                                    !- Wind Speed {m/s}
  200,                                    !- Wind Direction {deg}
  ,                                       !- Sky Clearness
  No,                                     !- Rain Indicator
  No,                                     !- Snow Indicator
  21,                                     !- Day of Month
  7,                                      !- Month
  SummerDesignDay,                        !- Day Type
  No,                                     !- Daylight Saving Time Indicator
  Wetbulb,                                !- Humidity Condition Type
  ,                                       !- Humidity Condition Day Schedule Name
  23.4,                                   !- Wetbulb or DewPoint at Maximum Dry-Bulb {C}
  ,                                       !- Humidity Ratio at Maximum Dry-Bulb {kgWater/kgDryAir}
  ,                                       !- Enthalpy at Maximum Dry-Bulb {J/kg}
  ,                                       !- Dry-Bulb Temperature Range Modifier Type
  ,                                       !- Dry-Bulb Temperature Range Modifier Day Schedule Name
  ASHRAETau2017,                          !- Solar Model Indicator
  ,                                       !- Beam Solar Day Schedule Name
  ,                                       !- Diffuse Solar Day Schedule Name
  0.418,                                  !- ASHRAE Clear Sky Optical Depth for Beam Irradiance {dimensionless}
  2.331;                                  !- ASHRAE Clear Sky Optical Depth for Diffuse Irradiance {dimensionless}

OS:SizingPeriod:DesignDay,
  {0115184a-a5da-440b-b576-93b2228d4daa}, !- Handle
  Montreal-McTavish Ann Clg .4% Condns DP=>MDB, !- Name
  26.2,                                   !- Maximum Dry-Bulb Temperature {C}
  8,                                      !- Daily Dry-Bulb Temperature Range {deltaC}
  100453,                                 !- Barometric Pressure {Pa}
  1.9,                                    !- Wind Speed {m/s}
  200,                                    !- Wind Direction {deg}
  ,                                       !- Sky Clearness
  No,                                     !- Rain Indicator
  No,                                     !- Snow Indicator
  21,                                     !- Day of Month
  7,                                      !- Month
  SummerDesignDay,                        !- Day Type
  No,                                     !- Daylight Saving Time Indicator
  Dewpoint,                               !- Humidity Condition Type
  ,                                       !- Humidity Condition Day Schedule Name
  21.7,                                   !- Wetbulb or DewPoint at Maximum Dry-Bulb {C}
  ,                                       !- Humidity Ratio at Maximum Dry-Bulb {kgWater/kgDryAir}
  ,                                       !- Enthalpy at Maximum Dry-Bulb {J/kg}
  ,                                       !- Dry-Bulb Temperature Range Modifier Type
  ,                                       !- Dry-Bulb Temperature Range Modifier Day Schedule Name
  ASHRAETau2017,                          !- Solar Model Indicator
  ,                                       !- Beam Solar Day Schedule Name
  ,                                       !- Diffuse Solar Day Schedule Name
  0.418,                                  !- ASHRAE Clear Sky Optical Depth for Beam Irradiance {dimensionless}
  2.331;                                  !- ASHRAE Clear Sky Optical Depth for Diffuse Irradiance {dimensionless}

OS:SizingPeriod:DesignDay,
  {2e18c197-5f75-40ef-9fa2-16ce320ac340}, !- Handle
  Montreal-McTavish Ann Clg .4% Condns Enth=>MDB, !- Name
  28.5,                                   !- Maximum Dry-Bulb Temperature {C}
  8,                                      !- Daily Dry-Bulb Temperature Range {deltaC}
  100453,                                 !- Barometric Pressure {Pa}
  1.9,                                    !- Wind Speed {m/s}
  200,                                    !- Wind Direction {deg}
  ,                                       !- Sky Clearness
  No,                                     !- Rain Indicator
  No,                                     !- Snow Indicator
  21,                                     !- Day of Month
  7,                                      !- Month
  SummerDesignDay,                        !- Day Type
  No,                                     !- Daylight Saving Time Indicator
  Enthalpy,                               !- Humidity Condition Type
  ,                                       !- Humidity Condition Day Schedule Name
  23,                                     !- Wetbulb or DewPoint at Maximum Dry-Bulb {C}
  ,                                       !- Humidity Ratio at Maximum Dry-Bulb {kgWater/kgDryAir}
  70000,                                  !- Enthalpy at Maximum Dry-Bulb {J/kg}
  ,                                       !- Dry-Bulb Temperature Range Modifier Type
  ,                                       !- Dry-Bulb Temperature Range Modifier Day Schedule Name
  ASHRAETau2017,                          !- Solar Model Indicator
  ,                                       !- Beam Solar Day Schedule Name
  ,                                       !- Diffuse Solar Day Schedule Name
  0.418,                                  !- ASHRAE Clear Sky Optical Depth for Beam Irradiance {dimensionless}
  2.331;                                  !- ASHRAE Clear Sky Optical Depth for Diffuse Irradiance {dimensionless}

OS:SizingPeriod:DesignDay,
  {9fc2dda6-6e41-4a82-a397-c0c0971b8b53}, !- Handle
  Montreal-McTavish January .4% Condns DB=>MCWB, !- Name
  8.7,                                    !- Maximum Dry-Bulb Temperature {C}
  6.8,                                    !- Daily Dry-Bulb Temperature Range {deltaC}
  100453,                                 !- Barometric Pressure {Pa}
  2,                                      !- Wind Speed {m/s}
  200,                                    !- Wind Direction {deg}
  ,                                       !- Sky Clearness
  No,                                     !- Rain Indicator
  No,                                     !- Snow Indicator
  21,                                     !- Day of Month
  1,                                      !- Month
  SummerDesignDay,                        !- Day Type
  No,                                     !- Daylight Saving Time Indicator
  Wetbulb,                                !- Humidity Condition Type
  ,                                       !- Humidity Condition Day Schedule Name
  7.7,                                    !- Wetbulb or DewPoint at Maximum Dry-Bulb {C}
  ,                                       !- Humidity Ratio at Maximum Dry-Bulb {kgWater/kgDryAir}
  ,                                       !- Enthalpy at Maximum Dry-Bulb {J/kg}
  ,                                       !- Dry-Bulb Temperature Range Modifier Type
  ,                                       !- Dry-Bulb Temperature Range Modifier Day Schedule Name
  ASHRAETau2017,                          !- Solar Model Indicator
  ,                                       !- Beam Solar Day Schedule Name
  ,                                       !- Diffuse Solar Day Schedule Name
  0.288,                                  !- ASHRAE Clear Sky Optical Depth for Beam Irradiance {dimensionless}
  2.162;                                  !- ASHRAE Clear Sky Optical Depth for Diffuse Irradiance {dimensionless}

OS:SizingPeriod:DesignDay,
  {f0d73509-d24b-4e31-93c9-bdcb681b3944}, !- Handle
  Montreal-McTavish February .4% Condns DB=>MCWB, !- Name
  8,                                      !- Maximum Dry-Bulb Temperature {C}
  7.2,                                    !- Daily Dry-Bulb Temperature Range {deltaC}
  100453,                                 !- Barometric Pressure {Pa}