
OS:Version,
  {42364541-be2c-4001-9309-67428befb009}, !- Handle
  3.10.0;                                 !- Version Identifier

OS:WeatherFile,
  {37387f76-b75f-481b-9249-611ab4b0e001}, !- Handle
  Montreal-McTavish,                      !- City
  QC,                                     !- State Province Region
  CAN,                                    !- Country
  CWEC2016,                               !- Data Source
  716120,                                 !- WMO Number
  45.5,                                   !- Latitude {deg}
  -73.58,                                 !- Longitude {deg}
  -5,                                     !- Time Zone {hr}
  72.8,                                   !- Elevation {m}
  /workspaces/LadybugTools/CAN_QC_Montreal-McTavish.716120_CWEC2016/CAN_QC_Montreal-McTavish.716120_CWEC2016.epw, !- Url
  F56E6BFC,                               !- Checksum
  ,                                       !- Start Date Actual Year
  Sunday;                                 !- Start Day of Week

OS:ClimateZones,
  {8aeec341-b1cf-4f41-bd13-2406e539586e}, !- Handle
  ASHRAE,                                 !- Climate Zone Institution Name 1
  ANSI/ASHRAE Standard 169,               !- Climate Zone Document Name 1
  2006,                                   !- Climate Zone Document Year 1
  6A;                                     !- Climate Zone Value 1

OS:Output:Variable,
  {210fed42-3824-4032-895a-55b0b41ed174}, !- Handle
  Output Variable 1,                      !- Name
  ,                                       !- Key Value
  Baseboard Electricity Energy,           !- Variable Name
  Hourly;                                 !- Reporting Frequency

OS:Output:Variable,
  {256e395f-0ad5-4549-8f8f-dbb95c8c0d02}, !- Handle
  Output Variable 2,                      !- Name
  ,                                       !- Key Value
  Boiler Electricity Energy,              !- Variable Name
  Hourly;                                 !- Reporting Frequency

OS:Output:Variable,
  {dc822c08-e817-4eb5-b53d-bf7fb0997189}, !- Handle
  Output Variable 3,                      !- Name
  ,                                       !- Key Value
  Boiler NaturalGas Energy,               !- Variable Name
  Hourly;                                 !- Reporting Frequency

OS:Output:Variable,
  {0b8fc451-6667-40ca-af20-41363fe33015}, !- Handle
  Output Variable 4,                      !- Name
  ,                                       !- Key Value
  Chiller Electricity Energy,             !- Variable Name
  Hourly;                                 !- Reporting Frequency

OS:Output:Variable,
  {bc26e6ef-5dfa-4a78-b2a2-9f8db3a48922}, !- Handle
  Output Variable 5,                      !- Name
  ,                                       !- Key Value
  Chiller Heater System Cooling Electricity Energy, !- Variable Name
  Hourly;                                 !- Reporting Frequency

OS:Output:Variable,
  {9a6bbee0-9625-4474-bc6c-d3f9bab63d54}, !- Handle
  Output Variable 6,                      !- Name
  ,                                       !- Key Value
  Chiller Heater System Heating Electricity Energy, !- Variable Name
  Hourly;                                 !- Reporting Frequency

OS:Output:Variable,
  {fac18252-35cd-44dd-a5c0-6ed330382cee}, !- Handle
  Output Variable 7,                      !- Name
  ,                                       !- Key Value
  Cooling Coil Electricity Energy,        !- Variable Name
  Hourly;                                 !- Reporting Frequency

OS:Output:Variable,
  {d20d1dcc-6507-45b8-9276-f444eb650cf5}, !- Handle
  Output Variable 8,                      !- Name
  ,                                       !- Key Value
  Cooling Coil Water Heating Electricity Energy, !- Variable Name
  Hourly;                                 !- Reporting Frequency

OS:Output:Variable,
  {984c8b77-a3f6-49d6-9582-bd08f22c735d}, !- Handle
  Output Variable 9,                      !- Name
  ,                                       !- Key Value
  Cooling Tower Fan Electricity Energy,   !- Variable Name
  Hourly;                                 !- Reporting Frequency

OS:Output:Variable,
  {40136df2-cf42-4436-bd7e-708bb151c894}, !- Handle
  Output Variable 10,                     !- Name
  ,                                       !- Key Value
  District Cooling Water Energy,          !- Variable Name
  Hourly;                                 !- Reporting Frequency

OS:Output:Variable,
  {ecd3291b-78f7-427c-9f8c-47c25dfa0ebb}, !- Handle
  Output Variable 11,                     !- Name
  ,                                       !- Key Value
  District Heating Water Energy,          !- Variable Name
  Hourly;                                 !- Reporting Frequency

OS:Output:Variable,
  {26802c68-09f2-4ead-aa9c-a834363708e5}, !- Handle
  Output Variable 12,                     !- Name
  ,                                       !- Key Value
  Evaporative Cooler Electricity Energy,  !- Variable Name
  Hourly;                                 !- Reporting Frequency

OS:Output:Variable,
  {5ffd1742-8dd6-4f58-857c-9971d147099f}, !- Handle
  Output Variable 13,                     !- Name
  ,                                       !- Key Value
  Facility Net Purchased Electricity Energy, !- Variable Name
  Hourly;                                 !- Reporting Frequency

OS:Output:Variable,
  {5d5d44e8-f433-4b0c-8125-562f527d6ce6}, !- Handle
  Output Variable 14,                     !- Name
  ,                                       !- Key Value
  Facility Total Produced Electricity Energy, !- Variable Name
  Hourly;                                 !- Reporting Frequency

OS:Output:Variable,
  {3160fe49-335b-4f5a-9702-5b8a72d36413}, !- Handle
  Output Variable 15,                     !- Name
  ,                                       !- Key Value
  Fan Electricity Energy,                 !- Variable Name
  Hourly;                                 !- Reporting Frequency

OS:Output:Variable,
  {cb1f3d82-9e91-473e-a5a7-1c83483c581c}, !- Handle
  Output Variable 16,                     !- Name
  ,                                       !- Key Value
  Generator Produced DC Electricity Energy, !- Variable Name
  Hourly;                                 !- Reporting Frequency

OS:Output:Variable,
  {915a277d-5af4-4851-88ac-f9b996e4541d}, !- Handle
  Output Variable 17,                     !- Name
  ,                                       !- Key Value
  Heating Coil Electricity Energy,        !- Variable Name
  Hourly;                                 !- Reporting Frequency

OS:Output:Variable,
  {f28dbb59-46cb-4949-9f40-4f67b79d4e35}, !- Handle
  Output Variable 18,                     !- Name
  ,                                       !- Key Value
  Heating Coil NaturalGas Energy,         !- Variable Name
  Hourly;                                 !- Reporting Frequency

OS:Output:Variable,
  {f301ac81-2fad-4bf7-b3b7-5c85eeb846b4}, !- Handle
  Output Variable 19,                     !- Name
  ,                                       !- Key Value
  Heating Coil Total Heating Energy,      !- Variable Name
  Hourly;                                 !- Reporting Frequency

OS:Output:Variable,
  {af2b71a4-25b7-4b8a-a981-17d40ca493cd}, !- Handle
  Output Variable 20,                     !- Name
  ,                                       !- Key Value
  Hot_Water_Loop_Central_Air_Source_Heat_Pump Electricity Consumption, !- Variable Name
  Hourly;                                 !- Reporting Frequency

OS:Output:Variable,
  {0f7b78c7-a3b8-4de8-97bb-6aafbd4720c8}, !- Handle
  Output Variable 21,                     !- Name
  ,                                       !- Key Value
  Humidifier Electricity Energy,          !- Variable Name
  Hourly;                                 !- Reporting Frequency

OS:Output:Variable,
  {80e2e20f-89f5-4f53-83a6-06afd45d2b57}, !- Handle
  Output Variable 22,                     !- Name
  ,                                       !- Key Value
  Pump Electricity Energy,                !- Variable Name
  Hourly;                                 !- Reporting Frequency

OS:Output:Variable,
  {4865f2fe-b6be-46a1-be62-89f592348160}, !- Handle
  Output Variable 23,                     !- Name
  ,                                       !- Key Value
  VRF Heat Pump Cooling Electricity Energy, !- Variable Name
  Hourly;                                 !- Reporting Frequency

OS:Output:Variable,
  {66bae66d-a240-4ae0-bf0e-e2427867c946}, !- Handle
  Output Variable 24,                     !- Name
  ,                                       !- Key Value
  VRF Heat Pump Crankcase Heater Electricity Energy, !- Variable Name
  Hourly;                                 !- Reporting Frequency

OS:Output:Variable,
  {25643d97-83c5-411e-9553-b08dcffbf463}, !- Handle
  Output Variable 25,                     !- Name
  ,                                       !- Key Value
  VRF Heat Pump Defrost Electricity Energy, !- Variable Name
  Hourly;                                 !- Reporting Frequency

OS:Output:Variable,
  {c4199c31-5222-4023-adb4-5e2781397efb}, !- Handle
  Output Variable 26,                     !- Name
  ,                                       !- Key Value
  VRF Heat Pump Heating Electricity Energy, !- Variable Name
  Hourly;                                 !- Reporting Frequency

OS:Output:Variable,
  {f01115af-4eed-421f-b3fc-cf0a2c9435dd}, !- Handle
  Output Variable 27,                     !- Name
  ,                                       !- Key Value
  Water Heater Electricity Energy,        !- Variable Name
  Hourly;                                 !- Reporting Frequency

OS:Output:Variable,
  {d478852c-6907-4604-a68a-b49266cf7520}, !- Handle
  Output Variable 28,                     !- Name
  ,                                       !- Key Value
  Water Heater NaturalGas Energy,         !- Variable Name
  Hourly;                                 !- Reporting Frequency

OS:Output:Variable,
  {6fc63d19-a346-41ac-83c1-626711f6d902}, !- Handle
  Output Variable 29,                     !- Name
  ,                                       !- Key Value
  Water Use Equipment Heating Energy,     !- Variable Name
  Hourly;                                 !- Reporting Frequency

OS:Output:Variable,
  {7d397e36-a2a9-41ea-acb5-fba4c600f013}, !- Handle
  Output Variable 30,                     !- Name
  ,                                       !- Key Value
  Zone Electric Equipment Electricity Energy, !- Variable Name
  Hourly;                                 !- Reporting Frequency

OS:Output:Variable,
  {e87482ed-b690-4b9b-891a-453b919db92c}, !- Handle
  Output Variable 31,                     !- Name
  ,                                       !- Key Value
  Zone Gas Equipment NaturalGas Energy,   !- Variable Name
  Hourly;                                 !- Reporting Frequency

OS:Output:Variable,
  {d54b4ffc-8db4-4d15-b915-c5c143c8f65e}, !- Handle
  Output Variable 32,                     !- Name
  ,                                       !- Key Value
  Zone Ideal Loads Supply Air Total Cooling Energy, !- Variable Name
  Hourly;                                 !- Reporting Frequency

OS:Output:Variable,
  {7ad100e5-db3e-4945-91de-b8eefdeb52a4}, !- Handle
  Output Variable 33,                     !- Name
  ,                                       !- Key Value
  Zone Ideal Loads Supply Air Total Heating Energy, !- Variable Name
  Hourly;                                 !- Reporting Frequency

OS:Output:Variable,
  {75f31aa6-4e71-4fbe-922c-fec97763cf2a}, !- Handle
  Output Variable 34,                     !- Name
  ,                                       !- Key Value
  Zone Lights Electricity Energy,         !- Variable Name
  Hourly;                                 !- Reporting Frequency

OS:Output:Variable,
  {b9e31bc0-3aad-4566-8bd5-78e9a80e5314}, !- Handle
  Output Variable 35,                     !- Name
  ,                                       !- Key Value
  Zone Other Equipment Lost Heat Energy,  !- Variable Name
  Hourly;                                 !- Reporting Frequency

OS:Output:Variable,
  {97a0e0f9-a73c-4a64-a892-462f43da07a7}, !- Handle
  Output Variable 36,                     !- Name
  ,                                       !- Key Value
  Zone Other Equipment Total Heating Energy, !- Variable Name
  Hourly;                                 !- Reporting Frequency

OS:Output:Variable,
  {86484d71-849f-494f-ac46-ca1b228a22a2}, !- Handle
  Output Variable 37,                     !- Name
  ,                                       !- Key Value
  Zone VRF Air Terminal Cooling Electricity Energy, !- Variable Name
  Hourly;                                 !- Reporting Frequency

OS:Output:Variable,
  {1cf4b85d-4f56-47e2-951c-1000b943cd07}, !- Handle
  Output Variable 38,                     !- Name
  ,                                       !- Key Value
  Zone VRF Air Terminal Heating Electricity Energy, !- Variable Name
  Hourly;                                 !- Reporting Frequency

OS:Output:Variable,
  {a8013f16-4a86-47ee-91d1-b2bfc968bd29}, !- Handle
  Output Variable 39,                     !- Name
  ,                                       !- Key Value
  Zone Ventilation Fan Electricity Energy, !- Variable Name
  Hourly;                                 !- Reporting Frequency

OS:Output:Table:SummaryReports,
  {b0fd2a39-1780-49bc-9073-1204d32af62a}, !- Handle
  AllSummary;                             !- Report Name 1

OS:OutputControl:ReportingTolerances,
  {a1782e1e-a674-4f56-9e6f-dabf3f8440f3}, !- Handle
  1.11,                                   !- Tolerance for Time Heating Setpoint Not Met {deltaC}
  1.11;                                   !- Tolerance for Time Cooling Setpoint Not Met {deltaC}

OS:YearDescription,
  {26a2db04-34a5-4a69-9237-8944b1eb2542}, !- Handle
  ,                                       !- Calendar Year
  Sunday;                                 !- Day of Week for Start Day

OS:RunPeriod,
  {22ea33e7-c80d-4353-9cd2-c457c466e59d}, !- Handle
  Run Period 1,                           !- Name
  1,                                      !- Begin Month
  1,                                      !- Begin Day of Month
  12,                                     !- End Month
  31,                                     !- End Day of Month
  ,                                       !- Use Weather File Holidays and Special Days
  ,                                       !- Use Weather File Daylight Saving Period
  ,                                       !- Apply Weekend Holiday Rule
  ,                                       !- Use Weather File Rain Indicators
  ,                                       !- Use Weather File Snow Indicators
  ;                                       !- Number of Times Runperiod to be Repeated

OS:Sizing:Parameters,
  {ea95a2a7-974d-414b-a79c-d1c823740052}, !- Handle
  1.25,                                   !- Heating Sizing Factor
  1.15;                                   !- Cooling Sizing Factor

OS:SizingPeriod:DesignDay,
  {4be7c60e-6282-48f5-916e-6be49ea578e3}, !- Handle
  Montreal-McTavish Ann Htg 99.6% Condns DB, !- Name
  -21.3,                                  !- Maximum Dry-Bulb Temperature {C}
  0,                                      !- Daily Dry-Bulb Temperature Range {deltaC}
  100453,                                 !- Barometric Pressure {Pa}
  2,                                      !- Wind Speed {m/s}
  250,                                    !- Wind Direction {deg}
  0,                                      !- Sky Clearness
  No,                                     !- Rain Indicator
  No,                                     !- Snow Indicator
  21,                                     !- Day of Month
  1,                                      !- Month
  WinterDesignDay,                        !- Day Type
  No,                                     !- Daylight Saving Time Indicator
  Wetbulb,                                !- Humidity Condition Type
  ,                                       !- Humidity Condition Day Schedule Name
  -21.3,                                  !- Wetbulb or DewPoint at Maximum Dry-Bulb {C}
  ,                                       !- Humidity Ratio at Maximum Dry-Bulb {kgWater/kgDryAir}
  ,                                       !- Enthalpy at Maximum Dry-Bulb {J/kg}
  ,                                       !- Dry-Bulb Temperature Range Modifier Type
  ,                                       !- Dry-Bulb Temperature Range Modifier Day Schedule Name
  ASHRAEClearSky;                         !- Solar Model Indicator

OS:SizingPeriod:DesignDay,
  {3fe9678d-d5b5-4791-91a0-b9d9106ccd9f}, !- Handle
  Montreal-McTavish Ann Hum_n 99.6% Condns DP=>MCDB, !- Name
  -20.7,                                  !- Maximum Dry-Bulb Temperature {C}
  0,                                      !- Daily Dry-Bulb Temperature Range {deltaC}
  100453,                                 !- Barometric Pressure {Pa}
  2,                                      !- Wind Speed {m/s}
  250,                                    !- Wind Direction {deg}
  0,                                      !- Sky Clearness
  No,                                     !- Rain Indicator
  No,                                     !- Snow Indicator
  21,                                     !- Day of Month
  1,                                      !- Month
  WinterDesignDay,                        !- Day Type
  No,                                     !- Daylight Saving Time Indicator
  Dewpoint,                               !- Humidity Condition Type
  ,                                       !- Humidity Condition Day Schedule Name
  -28,                                    !- Wetbulb or DewPoint at Maximum Dry-Bulb {C}
  ,                                       !- Humidity Ratio at Maximum Dry-Bulb {kgWater/kgDryAir}
  ,                                       !- Enthalpy at Maximum Dry-Bulb {J/kg}
  ,                                       !- Dry-Bulb Temperature Range Modifier Type
  ,                                       !- Dry-Bulb Temperature Range Modifier Day Schedule Name
  ASHRAEClearSky;                         !- Solar Model Indicator

OS:SizingPeriod:DesignDay,
  {39e1639a-0f32-4f70-b2ef-22494f6bec82}, !- Handle
  Montreal-McTavish Ann Htg Wind 99.6% Condns WS=>MCDB, !- Name
  -10.4,                                  !- Maximum Dry-Bulb Temperature {C}
  0,                                      !- Daily Dry-Bulb Temperature Range {deltaC}
  100453,                                 !- Barometric Pressure {Pa}
  5.2,                                    !- Wind Speed {m/s}
  250,                                    !- Wind Direction {deg}
  0,                                      !- Sky Clearness
  No,                                     !- Rain Indicator
  No,                                     !- Snow Indicator
  21,                                     !- Day of Month
  1,                                      !- Month
  WinterDesignDay,                        !- Day Type
  No,                                     !- Daylight Saving Time Indicator
  Wetbulb,                                !- Humidity Condition Type
  ,                                       !- Humidity Condition Day Schedule Name
  -10.4,                                  !- Wetbulb or DewPoint at Maximum Dry-Bulb {C}
  ,                                       !- Humidity Ratio at Maximum Dry-Bulb {kgWater/kgDryAir}
  ,                                       !- Enthalpy at Maximum Dry-Bulb {J/kg}
  ,                                       !- Dry-Bulb Temperature Range Modifier Type
  ,                                       !- Dry-Bulb Temperature Range Modifier Day Schedule Name
  ASHRAEClearSky;                         !- Solar Model Indicator

OS:SizingPeriod:DesignDay,
  {247a99bf-7db0-4689-a148-1d1d9be906aa}, !- Handle
  Montreal-McTavish Ann Clg .4% Condns DB=>MWB, !- Name
  30.5,                                   !- Maximum Dry-Bulb Temperature {C}
  9.3,                                    !- Daily Dry-Bulb Temperature Range {deltaC}
  100453,                                 !- Barometric Pressure {Pa}
  1.9,                                    !- Wind Speed {m/s}
  200,                                    !- Wind Direction {deg}
  ,                                       !- Sky Clearness
  No,                                     !- Rain Indicator
  No,                                     !- Snow Indicator
  21,                                     !- Day of Month
  7,                                      !- Month
  SummerDesignDay,                        !- Day Type
  No,                                     !- Daylight Saving Time Indicator
  Wetbulb,                                !- Humidity Condition Type
  ,                                       !- Humidity Condition Day Schedule Name
  21.8,                                   !- Wetbulb or DewPoint at Maximum Dry-Bulb {C}
  ,                                       !- Humidity Ratio at Maximum Dry-Bulb {kgWater/kgDryAir}
  ,                                       !- Enthalpy at Maximum Dry-Bulb {J/kg}
  ,                                       !- Dry-Bulb Temperature Range Modifier Type
  ,                                       !- Dry-Bulb Temperature Range Modifier Day Schedule Name
  ASHRAETau2017,                          !- Solar Model Indicator
  ,                                       !- Beam Solar Day Schedule Name
  ,                                       !- Diffuse Solar Day Schedule Name
  0.418,                                  !- ASHRAE Clear Sky Optical Depth for Beam Irradiance {dimensionless}
  2.331;                                  !- ASHRAE Clear Sky Optical Depth for Diffuse Irradiance {dimensionless}

OS:SizingPeriod:DesignDay,
  {938d1210-c61b-4555-97bd-a83efb6c27e7}, !- Handle
  Montreal-McTavish Ann Clg .4% Condns WB=>MDB, !- Name
  28.4,                                   !- Maximum Dry-Bulb Temperature {C}
  8.3,                                    !- Daily Dry-Bulb Temperature Range {deltaC}
  100453,                                 !- Barometric Pressure {Pa}
  1.9,                                    !- Wind Speed {m/s}
  200,                                    !- Wind Direction {deg}
  ,                                       !- Sky Clearness
  No,                                     !- Rain Indicator
  No,                                     !- Snow Indicator
  21,                                     !- Day of Month
  7,                                      !- Month
  SummerDesignDay,                        !- Day Type
  No,                                     !- Daylight Saving Time Indicator
  Wetbulb,                                !- Humidity Condition Type
  ,                                       !- Humidity Condition Day Schedule Name
  23.4,                                   !- Wetbulb or DewPoint at Maximum Dry-Bulb {C}
  ,                                       !- Humidity Ratio at Maximum Dry-Bulb {kgWater/kgDryAir}
  ,                                       !- Enthalpy at Maximum Dry-Bulb {J/kg}
  ,                                       !- Dry-Bulb Temperature Range Modifier Type
  ,                                       !- Dry-Bulb Temperature Range Modifier Day Schedule Name
  ASHRAETau2017,                          !- Solar Model Indicator
  ,                                       !- Beam Solar Day Schedule Name
  ,                                       !- Diffuse Solar Day Schedule Name
  0.418,                                  !- ASHRAE Clear Sky Optical Depth for Beam Irradiance {dimensionless}
  2.331;                                  !- ASHRAE Clear Sky Optical Depth for Diffuse Irradiance {dimensionless}

OS:SizingPeriod:DesignDay,
  {4fb963f5-93a9-48cb-8bd7-1c8562a7d331}, !- Handle
  Montreal-McTavish Ann Clg .4% Condns DP=>MDB, !- Name
  26.2,                                   !- Maximum Dry-Bulb Temperature {C}
  8,                                      !- Daily Dry-Bulb Temperature Range {deltaC}
  100453,                                 !- Barometric Pressure {Pa}
  1.9,                                    !- Wind Speed {m/s}
  200,                                    !- Wind Direction {deg}
  ,                                       !- Sky Clearness
  No,                                     !- Rain Indicator
  No,                                     !- Snow Indicator
  21,                                     !- Day of Month
  7,                                      !- Month
  SummerDesignDay,                        !- Day Type
  No,                                     !- Daylight Saving Time Indicator
  Dewpoint,                               !- Humidity Condition Type
  ,                                       !- Humidity Condition Day Schedule Name
  21.7,                                   !- Wetbulb or DewPoint at Maximum Dry-Bulb {C}
  ,                                       !- Humidity Ratio at Maximum Dry-Bulb {kgWater/kgDryAir}
  ,                                       !- Enthalpy at Maximum Dry-Bulb {J/kg}
  ,                                       !- Dry-Bulb Temperature Range Modifier Type
  ,                                       !- Dry-Bulb Temperature Range Modifier Day Schedule Name
  ASHRAETau2017,                          !- Solar Model Indicator
  ,                                       !- Beam Solar Day Schedule Name
  ,                                       !- Diffuse Solar Day Schedule Name
  0.418,                                  !- ASHRAE Clear Sky Optical Depth for Beam Irradiance {dimensionless}
  2.331;                                  !- ASHRAE Clear Sky Optical Depth for Diffuse Irradiance {dimensionless}

OS:SizingPeriod:DesignDay,
  {55eea25c-1d91-453e-8424-dabb075b3e4b}, !- Handle
  Montreal-McTavish Ann Clg .4% Condns Enth=>MDB, !- Name
  28.5,                                   !- Maximum Dry-Bulb Temperature {C}
  8,                                      !- Daily Dry-Bulb Temperature Range {deltaC}
  100453,                                 !- Barometric Pressure {Pa}
  1.9,                                    !- Wind Speed {m/s}
  200,                                    !- Wind Direction {deg}
  ,                                       !- Sky Clearness
  No,                                     !- Rain Indicator
  No,                                     !- Snow Indicator
  21,                                     !- Day of Month
  7,                                      !- Month
  SummerDesignDay,                        !- Day Type
  No,                                     !- Daylight Saving Time Indicator
  Enthalpy,                               !- Humidity Condition Type
  ,                                       !- Humidity Condition Day Schedule Name
  23,                                     !- Wetbulb or DewPoint at Maximum Dry-Bulb {C}
  ,                                       !- Humidity Ratio at Maximum Dry-Bulb {kgWater/kgDryAir}
  70000,                                  !- Enthalpy at Maximum Dry-Bulb {J/kg}
  ,                                       !- Dry-Bulb Temperature Range Modifier Type
  ,                                       !- Dry-Bulb Temperature Range Modifier Day Schedule Name
  ASHRAETau2017,                          !- Solar Model Indicator
  ,                                       !- Beam Solar Day Schedule Name
  ,                                       !- Diffuse Solar Day Schedule Name
  0.418,                                  !- ASHRAE Clear Sky Optical Depth for Beam Irradiance {dimensionless}
  2.331;                                  !- ASHRAE Clear Sky Optical Depth for Diffuse Irradiance {dimensionless}

OS:SizingPeriod:DesignDay,
  {b719f89f-e348-4965-9487-e92bf8045c0d}, !- Handle
  Montreal-McTavish January .4% Condns DB=>MCWB, !- Name
  8.7,                                    !- Maximum Dry-Bulb Temperature {C}
  6.8,                                    !- Daily Dry-Bulb Temperature Range {deltaC}
  100453,                                 !- Barometric Pressure {Pa}
  2,                                      !- Wind Speed {m/s}
  200,                                    !- Wind Direction {deg}
  ,                                       !- Sky Clearness
  No,                                     !- Rain Indicator
  No,                                     !- Snow Indicator
  21,                                     !- Day of Month
  1,                                      !- Month
  SummerDesignDay,                        !- Day Type
  No,                                     !- Daylight Saving Time Indicator
  Wetbulb,                                !- Humidity Condition Type
  ,                                       !- Humidity Condition Day Schedule Name
  7.7,                                    !- Wetbulb or DewPoint at Maximum Dry-Bulb {C}
  ,                                       !- Humidity Ratio at Maximum Dry-Bulb {kgWater/kgDryAir}
  ,                                       !- Enthalpy at Maximum Dry-Bulb {J/kg}
  ,                                       !- Dry-Bulb Temperature Range Modifier Type
  ,                                       !- Dry-Bulb Temperature Range Modifier Day Schedule Name
  ASHRAETau2017,                          !- Solar Model Indicator
  ,                                       !- Beam Solar Day Schedule Name
  ,                                       !- Diffuse Solar Day Schedule Name
  0.288,                                  !- ASHRAE Clear Sky Optical Depth for Beam Irradiance {dimensionless}
  2.162;                                  !- ASHRAE Clear Sky Optical Depth for Diffuse Irradiance {dimensionless}

OS:SizingPeriod:DesignDay,
  {9789ab47-f1fd-4c31-87a6-f1117f29e379}, !- Handle
  Montreal-McTavish February .4% Condns DB=>MCWB, !- Name
  8,                                      !- Maximum Dry-Bulb Temperature {C}
  7.2,                                    !- Daily Dry-Bulb Temperature Range {deltaC}
  100453,                                 !- Barometric Pressure {Pa}