
Version,
  25.1;                                   !- Version Identifier

Timestep,
  6;                                      !- Number of Timesteps per Hour

LifeCycleCost:Parameters,
  Life Cycle Cost Parameters,             !- Name
  EndOfYear,                              !- Discounting Convention
  ConstantDollar,                         !- Inflation Approach
  0.03,                                   !- Real Discount Rate
  ,                                       !- Nominal Discount Rate
  ,                                       !- Inflation
  ,                                       !- Base Date Month
  2011,                                   !- Base Date Year
  ,                                       !- Service Date Month
  2011,                                   !- Service Date Year
  25,                                     !- Length of Study Period in Years
  ,                                       !- Tax rate
  None;                                   !- Depreciation Method

LifeCycleCost:UsePriceEscalation,
  U.S. Avg  Commercial-Electricity,       !- Name
  Electricity,                            !- Resource
  2011,                                   !- Escalation Start Year
  January,                                !- Escalation Start Month
  0.9838,                                 !- Year Escalation 1
  0.9730,                                 !- Year Escalation 2
  0.9632,                                 !- Year Escalation 3
  0.9611,                                 !- Year Escalation 4
  0.9571,                                 !- Year Escalation 5
  0.9553,                                 !- Year Escalation 6
  0.9539,                                 !- Year Escalation 7
  0.9521,                                 !- Year Escalation 8
  0.9546,                                 !- Year Escalation 9
  0.9550,                                 !- Year Escalation 10
  0.9553,                                 !- Year Escalation 11
  0.9564,                                 !- Year Escalation 12
  0.9575,                                 !- Year Escalation 13
  0.9596,                                 !- Year Escalation 14
  0.9618,                                 !- Year Escalation 15
  0.9614,                                 !- Year Escalation 16
  0.9618,                                 !- Year Escalation 17
  0.9618,                                 !- Year Escalation 18
  0.9593,                                 !- Year Escalation 19
  0.9589,                                 !- Year Escalation 20
  0.9607,                                 !- Year Escalation 21
  0.9625,                                 !- Year Escalation 22
  0.9650,                                 !- Year Escalation 23
  0.9708,                                 !- Year Escalation 24
  0.9751,                                 !- Year Escalation 25
  0.9762,                                 !- Year Escalation 26
  0.9766,                                 !- Year Escalation 27
  0.9766,                                 !- Year Escalation 28
  0.9769,                                 !- Year Escalation 29
  0.9773;                                 !- Year Escalation 30

LifeCycleCost:UsePriceEscalation,
  U.S. Avg  Commercial-Distillate Oil,    !- Name
  FuelOilNo1,                             !- Resource
  2011,                                   !- Escalation Start Year
  January,                                !- Escalation Start Month
  0.9714,                                 !- Year Escalation 1
  0.9730,                                 !- Year Escalation 2
  0.9942,                                 !- Year Escalation 3
  1.0164,                                 !- Year Escalation 4
  1.0541,                                 !- Year Escalation 5
  1.0928,                                 !- Year Escalation 6
  1.1267,                                 !- Year Escalation 7
  1.1580,                                 !- Year Escalation 8
  1.1792,                                 !- Year Escalation 9
  1.1967,                                 !- Year Escalation 10
  1.2200,                                 !- Year Escalation 11
  1.2333,                                 !- Year Escalation 12
  1.2566,                                 !- Year Escalation 13
  1.2709,                                 !- Year Escalation 14
  1.2826,                                 !- Year Escalation 15
  1.2985,                                 !- Year Escalation 16
  1.3102,                                 !- Year Escalation 17
  1.3250,                                 !- Year Escalation 18
  1.3261,                                 !- Year Escalation 19
  1.3282,                                 !- Year Escalation 20
  1.3324,                                 !- Year Escalation 21
  1.3356,                                 !- Year Escalation 22
  1.3431,                                 !- Year Escalation 23
  1.3510,                                 !- Year Escalation 24
  1.3568,                                 !- Year Escalation 25
  1.3606,                                 !- Year Escalation 26
  1.3637,                                 !- Year Escalation 27
  1.3674,                                 !- Year Escalation 28
  1.3706,                                 !- Year Escalation 29
  1.3743;                                 !- Year Escalation 30

LifeCycleCost:UsePriceEscalation,
  U.S. Avg  Commercial-Residual Oil,      !- Name
  FuelOilNo2,                             !- Resource
  2011,                                   !- Escalation Start Year
  January,                                !- Escalation Start Month
  0.8469,                                 !- Year Escalation 1
  0.8257,                                 !- Year Escalation 2
  0.8681,                                 !- Year Escalation 3
  0.8988,                                 !- Year Escalation 4
  0.9289,                                 !- Year Escalation 5
  0.9604,                                 !- Year Escalation 6
  0.9897,                                 !- Year Escalation 7
  1.0075,                                 !- Year Escalation 8
  1.0314,                                 !- Year Escalation 9
  1.0554,                                 !- Year Escalation 10
  1.0861,                                 !- Year Escalation 11
  1.1278,                                 !- Year Escalation 12
  1.1497,                                 !- Year Escalation 13
  1.1620,                                 !- Year Escalation 14
  1.1743,                                 !- Year Escalation 15
  1.1852,                                 !- Year Escalation 16
  1.1948,                                 !- Year Escalation 17
  1.2037,                                 !- Year Escalation 18
  1.2071,                                 !- Year Escalation 19
  1.2119,                                 !- Year Escalation 20
  1.2139,                                 !- Year Escalation 21
  1.2194,                                 !- Year Escalation 22
  1.2276,                                 !- Year Escalation 23
  1.2365,                                 !- Year Escalation 24
  1.2420,                                 !- Year Escalation 25
  1.2461,                                 !- Year Escalation 26
  1.2509,                                 !- Year Escalation 27
  1.2550,                                 !- Year Escalation 28
  1.2591,                                 !- Year Escalation 29
  1.2638;                                 !- Year Escalation 30

LifeCycleCost:UsePriceEscalation,
  U.S. Avg  Commercial-Natural gas,       !- Name
  NaturalGas,                             !- Resource
  2011,                                   !- Escalation Start Year
  January,                                !- Escalation Start Month
  0.9823,                                 !- Year Escalation 1
  0.9557,                                 !- Year Escalation 2
  0.9279,                                 !- Year Escalation 3
  0.9257,                                 !- Year Escalation 4
  0.9346,                                 !- Year Escalation 5
  0.9412,                                 !- Year Escalation 6
  0.9512,                                 !- Year Escalation 7
  0.9645,                                 !- Year Escalation 8
  0.9856,                                 !- Year Escalation 9
  1.0067,                                 !- Year Escalation 10
  1.0222,                                 !- Year Escalation 11
  1.0410,                                 !- Year Escalation 12
  1.0610,                                 !- Year Escalation 13
  1.0787,                                 !- Year Escalation 14
  1.0942,                                 !- Year Escalation 15
  1.1098,                                 !- Year Escalation 16
  1.1220,                                 !- Year Escalation 17
  1.1308,                                 !- Year Escalation 18
  1.1386,                                 !- Year Escalation 19
  1.1486,                                 !- Year Escalation 20
  1.1619,                                 !- Year Escalation 21
  1.1763,                                 !- Year Escalation 22
  1.1918,                                 !- Year Escalation 23
  1.2118,                                 !- Year Escalation 24
  1.2284,                                 !- Year Escalation 25
  1.2439,                                 !- Year Escalation 26
  1.2605,                                 !- Year Escalation 27
  1.2772,                                 !- Year Escalation 28
  1.2938,                                 !- Year Escalation 29
  1.3115;                                 !- Year Escalation 30

LifeCycleCost:UsePriceEscalation,
  U.S. Avg  Commercial-Coal,              !- Name
  Coal,                                   !- Resource
  2011,                                   !- Escalation Start Year
  January,                                !- Escalation Start Month
  0.9970,                                 !- Year Escalation 1
  1.0089,                                 !- Year Escalation 2
  1.0089,                                 !- Year Escalation 3
  0.9941,                                 !- Year Escalation 4
  0.9941,                                 !- Year Escalation 5
  1.0000,                                 !- Year Escalation 6
  1.0030,                                 !- Year Escalation 7
  1.0059,                                 !- Year Escalation 8
  1.0089,                                 !- Year Escalation 9
  1.0119,                                 !- Year Escalation 10
  1.0148,                                 !- Year Escalation 11
  1.0178,                                 !- Year Escalation 12
  1.0208,                                 !- Year Escalation 13
  1.0267,                                 !- Year Escalation 14
  1.0297,                                 !- Year Escalation 15
  1.0356,                                 !- Year Escalation 16
  1.0415,                                 !- Year Escalation 17
  1.0534,                                 !- Year Escalation 18
  1.0564,                                 !- Year Escalation 19
  1.0593,                                 !- Year Escalation 20
  1.0653,                                 !- Year Escalation 21
  1.0712,                                 !- Year Escalation 22
  1.0742,                                 !- Year Escalation 23
  1.0801,                                 !- Year Escalation 24
  1.0831,                                 !- Year Escalation 25
  1.0831,                                 !- Year Escalation 26
  1.0861,                                 !- Year Escalation 27
  1.0890,                                 !- Year Escalation 28
  1.0920,                                 !- Year Escalation 29
  1.0950;                                 !- Year Escalation 30

Building,
  OfficeBuilding,                         !- Name
  0,                                      !- North Axis {deg}
  City,                                   !- Terrain
  ,                                       !- Loads Convergence Tolerance Value {W}
  ,                                       !- Temperature Convergence Tolerance Value {deltaC}
  FullExteriorWithReflections,            !- Solar Distribution
  ,                                       !- Maximum Number of Warmup Days
  ;                                       !- Minimum Number of Warmup Days

Zone,
  Flr1_Office1,                           !- Name
  ,                                       !- Direction of Relative North {deg}
  0,                                      !- X Origin {m}
  0,                                      !- Y Origin {m}
  0,                                      !- Z Origin {m}
  ,                                       !- Type
  1,                                      !- Multiplier
  3,                                      !- Ceiling Height {m}
  300,                                    !- Volume {m3}
  ,                                       !- Floor Area {m2}
  ,                                       !- Zone Inside Convection Algorithm
  ,                                       !- Zone Outside Convection Algorithm
  Yes;                                    !- Part of Total Floor Area

Space,
  Flr1_Office1_Space,                     !- Name
  Flr1_Office1,                           !- Zone Name
  ,                                       !- Ceiling Height {m}
  300,                                    !- Volume {m3}
  ,                                       !- Floor Area {m2}
  Generic Office Program;                 !- Space Type

SpaceList,
  Generic Office Program,                 !- Name
  Office1_Space,                          !- Space Name 1
  Flr3_Office3_Space,                     !- Space Name 2
  Office3_Space,                          !- Space Name 3
  Flr3_Office1_Space,                     !- Space Name 4
  Flr3_Office2_Space,                     !- Space Name 5
  Flr2_Office4_Space,                     !- Space Name 6
  Flr3_Office4_Space,                     !- Space Name 7
  Flr2_Office3_Space,                     !- Space Name 8
  Flr1_Office1_Space,                     !- Space Name 9
  Flr2_Office2_Space,                     !- Space Name 10
  Flr2_Office1_Space,                     !- Space Name 11
  Flr1_Office3_Space,                     !- Space Name 12
  Flr1_Office4_Space,                     !- Space Name 13
  Office2_Space,                          !- Space Name 14
  Flr1_Office2_Space,                     !- Space Name 15
  Office4_Space;                          !- Space Name 16

Lights,
  Generic Office Lighting,                !- Name
  Generic Office Program,                 !- Zone or ZoneList or Space or SpaceList Name
  Generic Office Lighting,                !- Schedule Name
  Watts/Area,                             !- Design Level Calculation Method
  ,                                       !- Lighting Level {W}
  10.55,                                  !- Watts per Floor Area {W/m2}
  ,                                       !- Watts per Person {W/person}
  0,                                      !- Return Air Fraction
  0.7,                                    !- Fraction Radiant
  0.2,                                    !- Fraction Visible
  1,                                      !- Fraction Replaceable
  General;                                !- End-Use Subcategory

ScheduleTypeLimits,
  Fractional,                             !- Name
  0,                                      !- Lower Limit Value {BasedOnField A3}
  1,                                      !- Upper Limit Value {BasedOnField A3}
  Continuous;                             !- Numeric Type

Schedule:Day:Interval,
  OfficeMedium BLDG_LIGHT_SCH_2013_Sun,   !- Name
  Fractional,                             !- Schedule Type Limits Name
  No,                                     !- Interpolate to Timestep
  06:00,                                  !- Time 1 {hh:mm}
  0.05,                                   !- Value Until Time 1
  18:00,                                  !- Time 2 {hh:mm}
  0.04311628,                             !- Value Until Time 2
  24:00,                                  !- Time 3 {hh:mm}
  0.05;                                   !- Value Until Time 3

Schedule:Day:Interval,
  {399979f5-50e6-4966-b053-fbb79ae1eaf1}, !- Name
  Fractional,                             !- Schedule Type Limits Name
  No,                                     !- Interpolate to Timestep
  05:00,                                  !- Time 1 {hh:mm}
  0.05,                                   !- Value Until Time 1
  06:00,                                  !- Time 2 {hh:mm}
  0.1,                                    !- Value Until Time 2
  07:00,                                  !- Time 3 {hh:mm}
  0.08623256,                             !- Value Until Time 3
  08:00,                                  !- Time 4 {hh:mm}
  0.25869768,                             !- Value Until Time 4
  17:00,                                  !- Time 5 {hh:mm}
  0.77609304,                             !- Value Until Time 5
  18:00,                                  !- Time 6 {hh:mm}
  0.4311628,                              !- Value Until Time 6
  20:00,                                  !- Time 7 {hh:mm}
  0.25869768,                             !- Value Until Time 7
  22:00,                                  !- Time 8 {hh:mm}
  0.17246512,                             !- Value Until Time 8
  23:00,                                  !- Time 9 {hh:mm}
  0.08623256,                             !- Value Until Time 9
  24:00,                                  !- Time 10 {hh:mm}
  0.04311628;                             !- Value Until Time 10

Schedule:Day:Interval,
  {90137ae9-00fe-4058-84eb-68fd4e824ef1}, !- Name
  Fractional,                             !- Schedule Type Limits Name
  No,                                     !- Interpolate to Timestep
  06:00,                                  !- Time 1 {hh:mm}
  0.05,                                   !- Value Until Time 1
  08:00,                                  !- Time 2 {hh:mm}
  0.08623256,                             !- Value Until Time 2
  12:00,                                  !- Time 3 {hh:mm}
  0.25869768,                             !- Value Until Time 3
  17:00,                                  !- Time 4 {hh:mm}
  0.12934884,                             !- Value Until Time 4
  19:00,                                  !- Time 5 {hh:mm}
  0.04311628,                             !- Value Until Time 5
  24:00,                                  !- Time 6 {hh:mm}
  0.05;                                   !- Value Until Time 6

Schedule:Week:Daily,
  Generic Office Lighting Week Rule - Jan1-Dec31, !- Name
  OfficeMedium BLDG_LIGHT_SCH_2013_Sun,   !- Sunday Schedule:Day Name
  {399979f5-50e6-4966-b053-fbb79ae1eaf1}, !- Monday Schedule:Day Name
  {399979f5-50e6-4966-b053-fbb79ae1eaf1}, !- Tuesday Schedule:Day Name
  {399979f5-50e6-4966-b053-fbb79ae1eaf1}, !- Wednesday Schedule:Day Name
  {399979f5-50e6-4966-b053-fbb79ae1eaf1}, !- Thursday Schedule:Day Name
  {399979f5-50e6-4966-b053-fbb79ae1eaf1}, !- Friday Schedule:Day Name
  {90137ae9-00fe-4058-84eb-68fd4e824ef1}, !- Saturday Schedule:Day Name
  {dbdc34c4-5639-4abe-81e2-dab4ec01769c}, !- Holiday Schedule:Day Name
  {5c8fd9d4-a978-4887-a359-659da51f9f06}, !- SummerDesignDay Schedule:Day Name
  {3e6cc72b-9faa-4fd5-9e35-975f0bc06cdb}, !- WinterDesignDay Schedule:Day Name
  OfficeMedium BLDG_LIGHT_SCH_2013_Sun,   !- CustomDay1 Schedule:Day Name
  OfficeMedium BLDG_LIGHT_SCH_2013_Sun;   !- CustomDay2 Schedule:Day Name

Schedule:Year,
  Generic Office Lighting,                !- Name
  Fractional,                             !- Schedule Type Limits Name
  Generic Office Lighting Week Rule - Jan1-Dec31, !- Schedule:Week Name 1
  1,                                      !- Start Month 1
  1,                                      !- Start Day 1
  12,                                     !- End Month 1
  31;                                     !- End Day 1

Schedule:Day:Interval,
  {5c8fd9d4-a978-4887-a359-659da51f9f06}, !- Name
  Fractional,                             !- Schedule Type Limits Name
  No,                                     !- Interpolate to Timestep
  24:00,                                  !- Time 1 {hh:mm}
  1;                                      !- Value Until Time 1

Schedule:Day:Interval,
  {3e6cc72b-9faa-4fd5-9e35-975f0bc06cdb}, !- Name
  Fractional,                             !- Schedule Type Limits Name
  No,                                     !- Interpolate to Timestep
  24:00,                                  !- Time 1 {hh:mm}
  0;                                      !- Value Until Time 1

Schedule:Day:Interval,
  {dbdc34c4-5639-4abe-81e2-dab4ec01769c}, !- Name
  Fractional,                             !- Schedule Type Limits Name
  No,                                     !- Interpolate to Timestep
  06:00,                                  !- Time 1 {hh:mm}
  0.05,                                   !- Value Until Time 1
  08:00,                                  !- Time 2 {hh:mm}
  0.08623256,                             !- Value Until Time 2
  12:00,                                  !- Time 3 {hh:mm}
  0.25869768,                             !- Value Until Time 3
  17:00,                                  !- Time 4 {hh:mm}
  0.12934884,                             !- Value Until Time 4
  19:00,                                  !- Time 5 {hh:mm}
  0.04311628,                             !- Value Until Time 5
  24:00,                                  !- Time 6 {hh:mm}
  0.05;                                   !- Value Until Time 6

People,
  Generic Office People,                  !- Name
  Generic Office Program,                 !- Zone or ZoneList or Space or SpaceList Name
  Generic Office Occupancy,               !- Number of People Schedule Name
  People/Area,                            !- Number of People Calculation Method
  ,                                       !- Number of People
  0.0565,                                 !- People per Floor Area {person/m2}
  ,                                       !- Floor Area per Person {m2/person}
  0.3,                                    !- Fraction Radiant
  ,                                       !- Sensible Heat Fraction
  Seated Adult Activity;                  !- Activity Level Schedule Name

Schedule:Day:Interval,
  OfficeMedium BLDG_OCC_SCH_Default,      !- Name
  Fractional,                             !- Schedule Type Limits Name
  No,                                     !- Interpolate to Timestep
  06:00,                                  !- Time 1 {hh:mm}
  0,                                      !- Value Until Time 1
  18:00,                                  !- Time 2 {hh:mm}
  0.05,                                   !- Value Until Time 2
  24:00,                                  !- Time 3 {hh:mm}
  0;                                      !- Value Until Time 3

Schedule:Day:Interval,
  {c91eb3d9-bb0b-4551-8aef-02f6a3947798}, !- Name
  Fractional,                             !- Schedule Type Limits Name
  No,                                     !- Interpolate to Timestep
  06:00,                                  !- Time 1 {hh:mm}
  0,                                      !- Value Until Time 1
  07:00,                                  !- Time 2 {hh:mm}
  0.1,                                    !- Value Until Time 2
  08:00,                                  !- Time 3 {hh:mm}
  0.2,                                    !- Value Until Time 3
  12:00,                                  !- Time 4 {hh:mm}
  0.95,                                   !- Value Until Time 4
  13:00,                                  !- Time 5 {hh:mm}
  0.5,                                    !- Value Until Time 5
  17:00,                                  !- Time 6 {hh:mm}
  0.95,                                   !- Value Until Time 6
  18:00,                                  !- Time 7 {hh:mm}
  0.3,                                    !- Value Until Time 7
  22:00,                                  !- Time 8 {hh:mm}
  0.1,                                    !- Value Until Time 8
  24:00,                                  !- Time 9 {hh:mm}
  0.05;                                   !- Value Until Time 9

Schedule:Day:Interval,
  {0f32b44f-c6bf-41a2-89c6-0e060a6bcb4a}, !- Name
  Fractional,                             !- Schedule Type Limits Name
  No,                                     !- Interpolate to Timestep
  06:00,                                  !- Time 1 {hh:mm}
  0,                                      !- Value Until Time 1
  08:00,                                  !- Time 2 {hh:mm}
  0.1,                                    !- Value Until Time 2
  12:00,                                  !- Time 3 {hh:mm}
  0.3,                                    !- Value Until Time 3
  17:00,                                  !- Time 4 {hh:mm}
  0.1,                                    !- Value Until Time 4
  19:00,                                  !- Time 5 {hh:mm}
  0.05,                                   !- Value Until Time 5
  24:00,                                  !- Time 6 {hh:mm}
  0;                                      !- Value Until Time 6

Schedule:Week:Daily,
  Generic Office Occupancy Week Rule - Jan1-Dec31, !- Name
  OfficeMedium BLDG_OCC_SCH_Default,      !- Sunday Schedule:Day Name
  {c91eb3d9-bb0b-4551-8aef-02f6a3947798}, !- Monday Schedule:Day Name
  {c91eb3d9-bb0b-4551-8aef-02f6a3947798}, !- Tuesday Schedule:Day Name
  {c91eb3d9-bb0b-4551-8aef-02f6a3947798}, !- Wednesday Schedule:Day Name
  {c91eb3d9-bb0b-4551-8aef-02f6a3947798}, !- Thursday Schedule:Day Name
  {c91eb3d9-bb0b-4551-8aef-02f6a3947798}, !- Friday Schedule:Day Name
  {0f32b44f-c6bf-41a2-89c6-0e060a6bcb4a}, !- Saturday Schedule:Day Name
  {fa139b46-8456-449b-9934-3f8b7f768b32}, !- Holiday Schedule:Day Name
  {053d18cf-0a2b-4eb9-afa9-4f0cedd6db50}, !- SummerDesignDay Schedule:Day Name
  {b11d874c-d3c0-4379-85a0-7251280f7f6a}, !- WinterDesignDay Schedule:Day Name
  OfficeMedium BLDG_OCC_SCH_Default,      !- CustomDay1 Schedule:Day Name
  OfficeMedium BLDG_OCC_SCH_Default;      !- CustomDay2 Schedule:Day Name

Schedule:Year,
  Generic Office Occupancy,               !- Name
  Fractional,                             !- Schedule Type Limits Name
  Generic Office Occupancy Week Rule - Jan1-Dec31, !- Schedule:Week Name 1
  1,                                      !- Start Month 1
  1,                                      !- Start Day 1
  12,                                     !- End Month 1
  31;                                     !- End Day 1

Schedule:Day:Interval,
  {053d18cf-0a2b-4eb9-afa9-4f0cedd6db50}, !- Name
  Fractional,                             !- Schedule Type Limits Name
  No,                                     !- Interpolate to Timestep
  06:00,                                  !- Time 1 {hh:mm}
  0,                                      !- Value Until Time 1
  22:00,                                  !- Time 2 {hh:mm}
  1,                                      !- Value Until Time 2
  24:00,                                  !- Time 3 {hh:mm}
  0.05;                                   !- Value Until Time 3

Schedule:Day:Interval,
  {b11d874c-d3c0-4379-85a0-7251280f7f6a}, !- Name
  Fractional,                             !- Schedule Type Limits Name
  No,                                     !- Interpolate to Timestep
  24:00,                                  !- Time 1 {hh:mm}
  0;                                      !- Value Until Time 1

Schedule:Day:Interval,
  {fa139b46-8456-449b-9934-3f8b7f768b32}, !- Name
  Fractional,                             !- Schedule Type Limits Name
  No,                                     !- Interpolate to Timestep
  06:00,                                  !- Time 1 {hh:mm}
  0,                                      !- Value Until Time 1
  18:00,                                  !- Time 2 {hh:mm}
  0.05,                                   !- Value Until Time 2
  24:00,                                  !- Time 3 {hh:mm}
  0;                                      !- Value Until Time 3

ScheduleTypeLimits,
  Activity Level,                         !- Name
  0,                                      !- Lower Limit Value {BasedOnField A3}
  ,                                       !- Upper Limit Value {BasedOnField A3}
  Continuous,                             !- Numeric Type
  activitylevel;                          !- Unit Type

Schedule:Day:Interval,
  Seated Adult Activity_Day Schedule,     !- Name
  Activity Level,                         !- Schedule Type Limits Name
  No,                                     !- Interpolate to Timestep
  24:00,                                  !- Time 1 {hh:mm}
  120;                                    !- Value Until Time 1

Schedule:Week:Daily,
  Seated Adult Activity Week Rule - Jan1-Dec31, !- Name
  Seated Adult Activity_Day Schedule,     !- Sunday Schedule:Day Name
  Seated Adult Activity_Day Schedule,     !- Monday Schedule:Day Name
  Seated Adult Activity_Day Schedule,     !- Tuesday Schedule:Day Name
  Seated Adult Activity_Day Schedule,     !- Wednesday Schedule:Day Name
  Seated Adult Activity_Day Schedule,     !- Thursday Schedule:Day Name
  Seated Adult Activity_Day Schedule,     !- Friday Schedule:Day Name
  Seated Adult Activity_Day Schedule,     !- Saturday Schedule:Day Name
  Seated Adult Activity_Day Schedule,     !- Holiday Schedule:Day Name
  Seated Adult Activity_Day Schedule,     !- SummerDesignDay Schedule:Day Name
  Seated Adult Activity_Day Schedule,     !- WinterDesignDay Schedule:Day Name
  Seated Adult Activity_Day Schedule,     !- CustomDay1 Schedule:Day Name
  Seated Adult Activity_Day Schedule;     !- CustomDay2 Schedule:Day Name

Schedule:Year,